<?xml version="1.0" encoding="UTF-8"?>

<!-- generated on 2025-02-23 20:15:37.160210 by randomTrips.py UNKNOWN
<configuration>
    <begin value="0"/>
    <end value="3600"/>
    <flows value="400"/>
    <net-file value="manhattan.net.xml"/>
    <period value="1.0"/>
    <route-file value="manhattan.rou.xml"/>
    <validate value="True"/>
</configuration>
-->

<!-- generated on 2025-02-23 20:15:37 by Eclipse SUMO duarouter Version 1.15.0
<configuration xmlns:xsi="http://www.w3.org/2001/XMLSchema-instance" xsi:noNamespaceSchemaLocation="http://sumo.dlr.de/xsd/duarouterConfiguration.xsd">

    <input>
        <net-file value="manhattan.net.xml"/>
        <route-files value="trips.trips.xml"/>
    </input>

    <output>
        <output-file value="manhattan.rou.xml"/>
        <alternatives-output value="NUL"/>
    </output>

    <time>
        <begin value="0"/>
        <end value="3600"/>
    </time>

    <report>
        <no-warnings value="true"/>
        <ignore-errors value="true"/>
        <no-step-log value="true"/>
    </report>

</configuration>
-->

<routes xmlns:xsi="http://www.w3.org/2001/XMLSchema-instance" xsi:noNamespaceSchemaLocation="http://sumo.dlr.de/xsd/routes_file.xsd">
    <vehicle id="0.0" depart="0.00">
        <route edges="D0E0 E0E1 E1D1 D1C1 C1B1 B1A1 A1A0"/>
    </vehicle>
    <vehicle id="1.0" depart="0.00">
        <route edges="B2B3 B3B2 B2B1 B1B0"/>
    </vehicle>
    <vehicle id="10.0" depart="0.00">
        <route edges="D4C4 C4D4 D4D3 D3D2 D2D1 D1E1"/>
    </vehicle>
    <vehicle id="100.0" depart="0.00">
        <route edges="E3E4 E4D4 D4E4 E4E3 E3E2 E2E3"/>
    </vehicle>
    <vehicle id="101.0" depart="0.00">
        <route edges="E0D0 D0C0 C0B0 B0A0"/>
    </vehicle>
    <vehicle id="102.0" depart="0.00">
        <route edges="C2B2 B2B1 B1B0"/>
    </vehicle>
    <vehicle id="103.0" depart="0.00">
        <route edges="C0C1 C1B1 B1A1 A1B1"/>
    </vehicle>
    <vehicle id="104.0" depart="0.00">
        <route edges="B4C4 C4D4 D4E4 E4E3 E3E4 E4D4"/>
    </vehicle>
    <vehicle id="105.0" depart="0.00">
        <route edges="B2B1 B1B2 B2B3 B3C3 C3D3 D3D4"/>
    </vehicle>
    <vehicle id="106.0" depart="0.00">
        <route edges="C1C2 C2C1 C1C0 C0D0"/>
    </vehicle>
    <vehicle id="107.0" depart="0.00">
        <route edges="E3E2 E2D2 D2D3 D3D4 D4E4 E4E3"/>
    </vehicle>
    <vehicle id="108.0" depart="0.00">
        <route edges="C3C4 C4D4 D4D3 D3D2 D2D1"/>
    </vehicle>
    <vehicle id="109.0" depart="0.00">
        <route edges="A4B4 B4B3 B3B2 B2C2"/>
    </vehicle>
    <vehicle id="11.0" depart="0.00">
        <route edges="B3C3 C3B3 B3A3 A3A4 A4B4"/>
    </vehicle>
    <vehicle id="110.0" depart="0.00">
        <route edges="E3E4 E4D4 D4C4 C4B4"/>
    </vehicle>
    <vehicle id="111.0" depart="0.00">
        <route edges="C3C2 C2D2 D2E2"/>
    </vehicle>
    <vehicle id="112.0" depart="0.00">
        <route edges="A1B1 B1C1 C1C2 C2C3 C3C4 C4B4"/>
    </vehicle>
    <vehicle id="113.0" depart="0.00">
        <route edges="C2C3 C3D3 D3D2 D2D1 D1D0 D0E0 E0E1"/>
    </vehicle>
    <vehicle id="114.0" depart="0.00">
        <route edges="A4B4 B4C4 C4D4 D4E4 E4E3 E3E2"/>
    </vehicle>
    <vehicle id="115.0" depart="0.00">
        <route edges="A2A3 A3B3 B3B2 B2B1 B1B0 B0B1"/>
    </vehicle>
    <vehicle id="116.0" depart="0.00">
        <route edges="C4C3 C3D3 D3D2 D2D1 D1D2"/>
    </vehicle>
    <vehicle id="117.0" depart="0.00">
        <route edges="B1B2 B2A2 A2A3 A3A4"/>
    </vehicle>
    <vehicle id="118.0" depart="0.00">
        <route edges="E1E2 E2E1 E1D1 D1C1 C1B1 B1C1"/>
    </vehicle>
    <vehicle id="119.0" depart="0.00">
        <route edges="C4C3 C3D3 D3D2 D2D1 D1D0 D0C0"/>
    </vehicle>
    <vehicle id="12.0" depart="0.00">
        <route edges="E3E2 E2D2 D2C2 C2B2 B2B3 B3B4"/>
    </vehicle>
    <vehicle id="120.0" depart="0.00">
        <route edges="C0D0 D0C0 C0C1 C1C2 C2C3 C3C4 C4B4"/>
    </vehicle>
    <vehicle id="121.0" depart="0.00">
        <route edges="C2D2 D2E2 E2E3"/>
    </vehicle>
    <vehicle id="122.0" depart="0.00">
        <route edges="B1A1 A1A2 A2B2 B2C2 C2D2 D2D1"/>
    </vehicle>
    <vehicle id="123.0" depart="0.00">
        <route edges="B1C1 C1C0 C0B0"/>
    </vehicle>
    <vehicle id="124.0" depart="0.00">
        <route edges="D1D0 D0C0 C0B0 B0B1 B1B2 B2C2"/>
    </vehicle>
    <vehicle id="125.0" depart="0.00">
        <route edges="B3B2 B2B3 B3C3 C3D3 D3C3"/>
    </vehicle>
    <vehicle id="126.0" depart="0.00">
        <route edges="A2A1 A1B1 B1C1 C1C2"/>
    </vehicle>
    <vehicle id="127.0" depart="0.00">
        <route edges="E4E3"/>
    </vehicle>
    <vehicle id="128.0" depart="0.00">
        <route edges="A2A1 A1B1 B1B0"/>
    </vehicle>
    <vehicle id="129.0" depart="0.00">
        <route edges="B2B1 B1B2 B2C2 C2D2 D2E2 E2E3"/>
    </vehicle>
    <vehicle id="13.0" depart="0.00">
        <route edges="A2B2"/>
    </vehicle>
    <vehicle id="130.0" depart="0.00">
        <route edges="E1E0"/>
    </vehicle>
    <vehicle id="131.0" depart="0.00">
        <route edges="B4B3 B3A3 A3A4 A4B4"/>
    </vehicle>
    <vehicle id="132.0" depart="0.00">
        <route edges="D4E4 E4E3 E3E2 E2D2 D2C2"/>
    </vehicle>
    <vehicle id="133.0" depart="0.00">
        <route edges="C4D4 D4E4 E4E3 E3E4 E4D4"/>
    </vehicle>
    <vehicle id="134.0" depart="0.00">
        <route edges="D1C1 C1C0 C0B0 B0A0 A0A1"/>
    </vehicle>
    <vehicle id="135.0" depart="0.00">
        <route edges="D4D3 D3D2 D2C2 C2B2 B2C2"/>
    </vehicle>
    <vehicle id="136.0" depart="0.00">
        <route edges="D1D0 D0D1 D1D2 D2D3 D3E3 E3D3"/>
    </vehicle>
    <vehicle id="137.0" depart="0.00">
        <route edges="A3B3 B3A3 A3A4"/>
    </vehicle>
    <vehicle id="138.0" depart="0.00">
        <route edges="A3A2 A2A3 A3B3 B3C3 C3C4"/>
    </vehicle>
    <vehicle id="139.0" depart="0.00">
        <route edges="B2B1 B1B2 B2B3 B3B4 B4C4 C4D4"/>
    </vehicle>
    <vehicle id="14.0" depart="0.00">
        <route edges="E0D0 D0C0 C0C1 C1C2 C2C3 C3C4 C4D4"/>
    </vehicle>
    <vehicle id="140.0" depart="0.00">
        <route edges="D2D1 D1C1 C1B1 B1A1"/>
    </vehicle>
    <vehicle id="141.0" depart="0.00">
        <route edges="D0D1 D1C1 C1B1 B1B2 B2B1"/>
    </vehicle>
    <vehicle id="142.0" depart="0.00">
        <route edges="C2C1 C1C2 C2D2 D2E2 E2D2"/>
    </vehicle>
    <vehicle id="143.0" depart="0.00">
        <route edges="E0D0 D0C0 C0B0 B0A0 A0A1 A1A2 A2B2"/>
    </vehicle>
    <vehicle id="144.0" depart="0.00">
        <route edges="C0D0 D0C0 C0B0 B0B1 B1B2 B2B3"/>
    </vehicle>
    <vehicle id="145.0" depart="0.00">
        <route edges="A0A1 A1A2 A2A3 A3B3 B3C3 C3D3 D3D2"/>
    </vehicle>
    <vehicle id="146.0" depart="0.00">
        <route edges="D0D1 D1D2 D2C2 C2B2 B2A2"/>
    </vehicle>
    <vehicle id="147.0" depart="0.00">
        <route edges="D2E2 E2D2 D2C2 C2C3 C3C4"/>
    </vehicle>
    <vehicle id="148.0" depart="0.00">
        <route edges="C1B1 B1B0 B0A0 A0A1"/>
    </vehicle>
    <vehicle id="149.0" depart="0.00">
        <route edges="A2A3 A3B3 B3C3 C3D3 D3E3 E3E2 E2E1 E1E0"/>
    </vehicle>
    <vehicle id="15.0" depart="0.00">
        <route edges="D4C4 C4D4 D4D3 D3D2 D2D3"/>
    </vehicle>
    <vehicle id="150.0" depart="0.00">
        <route edges="E2D2 D2C2 C2C3 C3C2"/>
    </vehicle>
    <vehicle id="151.0" depart="0.00">
        <route edges="D4E4 E4E3 E3D3 D3C3 C3C4 C4B4"/>
    </vehicle>
    <vehicle id="152.0" depart="0.00">
        <route edges="A4A3 A3B3"/>
    </vehicle>
    <vehicle id="153.0" depart="0.00">
        <route edges="B3A3 A3B3 B3C3 C3D3 D3E3 E3E2 E2E1 E1E2"/>
    </vehicle>
    <vehicle id="154.0" depart="0.00">
        <route edges="D3E3 E3E2 E2E1 E1E0 E0D0 D0E0 E0E1"/>
    </vehicle>
    <vehicle id="155.0" depart="0.00">
        <route edges="E1E2 E2E1 E1D1 D1C1 C1B1 B1A1"/>
    </vehicle>
    <vehicle id="156.0" depart="0.00">
        <route edges="B1C1 C1B1 B1A1 A1A2 A2A3 A3A2"/>
    </vehicle>
    <vehicle id="157.0" depart="0.00">
        <route edges="D3D4 D4E4 E4E3 E3E2 E2E1 E1E0"/>
    </vehicle>
    <vehicle id="158.0" depart="0.00">
        <route edges="C0C1 C1D1 D1D0 D0C0"/>
    </vehicle>
    <vehicle id="159.0" depart="0.00">
        <route edges="A4B4 B4C4 C4D4 D4E4 E4E3 E3E2 E2E3"/>
    </vehicle>
    <vehicle id="16.0" depart="0.00">
        <route edges="C3B3 B3C3 C3D3 D3E3 E3E4"/>
    </vehicle>
    <vehicle id="160.0" depart="0.00">
        <route edges="E1D1 D1D2 D2E2 E2E3 E3E4 E4D4"/>
    </vehicle>
    <vehicle id="161.0" depart="0.00">
        <route edges="D4C4 C4D4 D4E4 E4E3 E3E2 E2E1 E1E0"/>
    </vehicle>
    <vehicle id="162.0" depart="0.00">
        <route edges="A0B0 B0C0 C0D0 D0D1 D1D2 D2D3"/>
    </vehicle>
    <vehicle id="163.0" depart="0.00">
        <route edges="B3B4 B4C4 C4D4 D4E4 E4E3 E3E2 E2E3"/>
    </vehicle>
    <vehicle id="164.0" depart="0.00">
        <route edges="D4C4 C4D4 D4E4 E4E3 E3E2 E2E1 E1D1"/>
    </vehicle>
    <vehicle id="165.0" depart="0.00">
        <route edges="D4C4 C4B4 B4B3 B3B2 B2B1"/>
    </vehicle>
    <vehicle id="166.0" depart="0.00">
        <route edges="D3D4 D4D3 D3C3 C3B3 B3A3 A3A2"/>
    </vehicle>
    <vehicle id="167.0" depart="0.00">
        <route edges="E1D1 D1D0 D0E0 E0E1"/>
    </vehicle>
    <vehicle id="168.0" depart="0.00">
        <route edges="B1B0 B0B1 B1B2 B2B3 B3B4 B4C4 C4D4 D4D3"/>
    </vehicle>
    <vehicle id="169.0" depart="0.00">
        <route edges="C1C2 C2C3 C3B3 B3A3"/>
    </vehicle>
    <vehicle id="17.0" depart="0.00">
        <route edges="B4C4 C4C3 C3C4"/>
    </vehicle>
    <vehicle id="170.0" depart="0.00">
        <route edges="D3E3 E3E2 E2E1 E1D1 D1C1 C1B1 B1B2"/>
    </vehicle>
    <vehicle id="171.0" depart="0.00">
        <route edges="A0B0 B0C0"/>
    </vehicle>
    <vehicle id="172.0" depart="0.00">
        <route edges="B3B4 B4C4 C4D4 D4E4 E4E3 E3E2 E2E1 E1D1"/>
    </vehicle>
    <vehicle id="173.0" depart="0.00">
        <route edges="E3E4 E4D4 D4D3 D3D2 D2C2 C2B2 B2B3"/>
    </vehicle>
    <vehicle id="174.0" depart="0.00">
        <route edges="D0E0 E0E1 E1E0 E0D0 D0C0 C0B0"/>
    </vehicle>
    <vehicle id="175.0" depart="0.00">
        <route edges="E4D4 D4D3 D3C3 C3B3"/>
    </vehicle>
    <vehicle id="176.0" depart="0.00">
        <route edges="E3D3 D3C3 C3B3 B3A3 A3A4"/>
    </vehicle>
    <vehicle id="177.0" depart="0.00">
        <route edges="E3E4 E4D4 D4D3 D3D2 D2D1 D1D0 D0C0 C0B0 B0B1"/>
    </vehicle>
    <vehicle id="178.0" depart="0.00">
        <route edges="E3E4 E4D4 D4C4 C4B4 B4B3 B3B2 B2B1"/>
    </vehicle>
    <vehicle id="179.0" depart="0.00">
        <route edges="A3A2 A2B2 B2C2 C2C1 C1B1"/>
    </vehicle>
    <vehicle id="18.0" depart="0.00">
        <route edges="D4E4 E4E3 E3E2 E2E1 E1E0 E0D0 D0C0"/>
    </vehicle>
    <vehicle id="180.0" depart="0.00">
        <route edges="D2D3 D3C3 C3B3 B3B2"/>
    </vehicle>
    <vehicle id="181.0" depart="0.00">
        <route edges="C4D4 D4D3 D3D2 D2C2 C2C3"/>
    </vehicle>
    <vehicle id="182.0" depart="0.00">
        <route edges="B4C4 C4B4"/>
    </vehicle>
    <vehicle id="183.0" depart="0.00">
        <route edges="B2A2 A2B2 B2C2 C2D2 D2C2"/>
    </vehicle>
    <vehicle id="184.0" depart="0.00">
        <route edges="A0A1 A1A2 A2B2 B2C2 C2D2 D2E2 E2E3"/>
    </vehicle>
    <vehicle id="185.0" depart="0.00">
        <route edges="C3C2 C2D2 D2D1"/>
    </vehicle>
    <vehicle id="186.0" depart="0.00">
        <route edges="D2E2 E2E1 E1D1 D1D0"/>
    </vehicle>
    <vehicle id="187.0" depart="0.00">
        <route edges="B4B3 B3B2 B2A2 A2A1"/>
    </vehicle>
    <vehicle id="188.0" depart="0.00">
        <route edges="D1D0 D0C0 C0B0 B0B1 B1B2 B2B3 B3B4"/>
    </vehicle>
    <vehicle id="189.0" depart="0.00">
        <route edges="B3B2 B2B1 B1C1 C1D1 D1E1 E1E0 E0D0"/>
    </vehicle>
    <vehicle id="19.0" depart="0.00">
        <route edges="E0E1 E1E2 E2E3 E3E4 E4D4 D4C4 C4B4"/>
    </vehicle>
    <vehicle id="190.0" depart="0.00">
        <route edges="D2D1 D1C1 C1B1 B1B2 B2B3 B3A3"/>
    </vehicle>
    <vehicle id="191.0" depart="0.00">
        <route edges="B3A3 A3B3 B3C3 C3C2 C2C1 C1C0 C0C1"/>
    </vehicle>
    <vehicle id="192.0" depart="0.00">
        <route edges="C0C1 C1B1 B1B2 B2C2"/>
    </vehicle>
    <vehicle id="193.0" depart="0.00">
        <route edges="A3B3 B3C3 C3C2 C2C1 C1C0 C0D0"/>
    </vehicle>
    <vehicle id="194.0" depart="0.00">
        <route edges="E3D3 D3D2 D2D1 D1D2"/>
    </vehicle>
    <vehicle id="195.0" depart="0.00">
        <route edges="E2D2 D2D1 D1D0 D0C0"/>
    </vehicle>
    <vehicle id="196.0" depart="0.00">
        <route edges="B3A3 A3B3 B3C3 C3C2"/>
    </vehicle>
    <vehicle id="197.0" depart="0.00">
        <route edges="A0A1 A1A2 A2B2 B2B3"/>
    </vehicle>
    <vehicle id="198.0" depart="0.00">
        <route edges="C1B1 B1B2 B2B3 B3B4 B4C4 C4B4"/>
    </vehicle>
    <vehicle id="199.0" depart="0.00">
        <route edges="D1C1 C1D1"/>
    </vehicle>
    <vehicle id="2.0" depart="0.00">
        <route edges="D2D3 D3D2 D2D1 D1D2"/>
    </vehicle>
    <vehicle id="20.0" depart="0.00">
        <route edges="D2C2 C2C1 C1B1 B1A1 A1A2"/>
    </vehicle>
    <vehicle id="200.0" depart="0.00">
        <route edges="C1C0 C0B0 B0B1 B1B0"/>
    </vehicle>
    <vehicle id="201.0" depart="0.00">
        <route edges="C1D1 D1D2 D2E2 E2D2"/>
    </vehicle>
    <vehicle id="202.0" depart="0.00">
        <route edges="D3E3 E3E2 E2E1 E1E0 E0D0 D0C0 C0B0 B0A0"/>
    </vehicle>
    <vehicle id="203.0" depart="0.00">
        <route edges="A2A3 A3B3 B3C3 C3C2 C2D2"/>
    </vehicle>
    <vehicle id="204.0" depart="0.00">
        <route edges="D0D1 D1C1 C1B1 B1B2 B2B3 B3B4"/>
    </vehicle>
    <vehicle id="205.0" depart="0.00">
        <route edges="D4D3 D3C3"/>
    </vehicle>
    <vehicle id="206.0" depart="0.00">
        <route edges="D1D0 D0C0 C0B0 B0B1 B1B0"/>
    </vehicle>
    <vehicle id="207.0" depart="0.00">
        <route edges="B0C0 C0B0 B0A0 A0A1 A1A0 A0B0"/>
    </vehicle>
    <vehicle id="208.0" depart="0.00">
        <route edges="B1C1 C1C2 C2B2"/>
    </vehicle>
    <vehicle id="209.0" depart="0.00">
        <route edges="E0D0 D0C0 C0B0 B0A0 A0A1 A1A2 A2A1"/>
    </vehicle>
    <vehicle id="21.0" depart="0.00">
        <route edges="B1B2 B2C2"/>
    </vehicle>
    <vehicle id="210.0" depart="0.00">
        <route edges="C0D0 D0D1"/>
    </vehicle>
    <vehicle id="211.0" depart="0.00">
        <route edges="B0C0 C0C1 C1D1 D1E1"/>
    </vehicle>
    <vehicle id="212.0" depart="0.00">
        <route edges="C2C1 C1B1 B1C1"/>
    </vehicle>
    <vehicle id="213.0" depart="0.00">
        <route edges="D1C1 C1C0 C0B0 B0A0 A0A1"/>
    </vehicle>
    <vehicle id="214.0" depart="0.00">
        <route edges="D3C3 C3D3 D3D2"/>
    </vehicle>
    <vehicle id="215.0" depart="0.00">
        <route edges="A3A2 A2B2 B2C2 C2C1 C1B1"/>
    </vehicle>
    <vehicle id="216.0" depart="0.00">
        <route edges="B0B1 B1B2 B2B3 B3C3 C3D3 D3E3 E3E2"/>
    </vehicle>
    <vehicle id="217.0" depart="0.00">
        <route edges="C2D2 D2D1 D1C1 C1B1 B1A1 A1B1"/>
    </vehicle>
    <vehicle id="218.0" depart="0.00">
        <route edges="B1C1 C1D1 D1E1 E1E0 E0D0"/>
    </vehicle>
    <vehicle id="219.0" depart="0.00">
        <route edges="C1C2 C2C3 C3C4 C4D4 D4C4"/>
    </vehicle>
    <vehicle id="22.0" depart="0.00">
        <route edges="A2A3 A3B3 B3B2 B2B1 B1B2"/>
    </vehicle>
    <vehicle id="220.0" depart="0.00">
        <route edges="D1D0 D0D1 D1D2 D2D3 D3D4 D4E4 E4E3"/>
    </vehicle>
    <vehicle id="221.0" depart="0.00">
        <route edges="C4C3 C3D3 D3E3 E3E2"/>
    </vehicle>
    <vehicle id="222.0" depart="0.00">
        <route edges="E1E2 E2E1 E1E0 E0D0 D0C0"/>
    </vehicle>
    <vehicle id="223.0" depart="0.00">
        <route edges="D2D1 D1C1 C1C2 C2C3"/>
    </vehicle>
    <vehicle id="224.0" depart="0.00">
        <route edges="D4E4 E4E3 E3D3 D3C3 C3C2"/>
    </vehicle>
    <vehicle id="225.0" depart="0.00">
        <route edges="E1E2 E2D2 D2E2"/>
    </vehicle>
    <vehicle id="226.0" depart="0.00">
        <route edges="C1D1 D1C1 C1B1 B1B2 B2A2"/>
    </vehicle>
    <vehicle id="227.0" depart="0.00">
        <route edges="B1C1 C1D1 D1D0 D0E0"/>
    </vehicle>
    <vehicle id="228.0" depart="0.00">
        <route edges="D3D2 D2C2 C2D2"/>
    </vehicle>
    <vehicle id="229.0" depart="0.00">
        <route edges="D0D1 D1C1 C1B1 B1B2 B2B1"/>
    </vehicle>
    <vehicle id="23.0" depart="0.00">
        <route edges="A3A2 A2B2 B2B3"/>
    </vehicle>
    <vehicle id="230.0" depart="0.00">
        <route edges="A2A3 A3B3 B3B2 B2B3"/>
    </vehicle>
    <vehicle id="231.0" depart="0.00">
        <route edges="B2B1 B1B2 B2B3 B3B2"/>
    </vehicle>
    <vehicle id="232.0" depart="0.00">
        <route edges="C3C2 C2B2 B2B3 B3B4 B4A4 A4A3"/>
    </vehicle>
    <vehicle id="233.0" depart="0.00">
        <route edges="B1B2 B2C2 C2D2 D2D1 D1E1"/>
    </vehicle>
    <vehicle id="234.0" depart="0.00">
        <route edges="D2C2 C2B2 B2A2 A2A1"/>
    </vehicle>
    <vehicle id="235.0" depart="0.00">
        <route edges="C0C1 C1C2 C2C3 C3C2"/>
    </vehicle>
    <vehicle id="236.0" depart="0.00">
        <route edges="C0D0 D0C0 C0B0 B0B1 B1A1"/>
    </vehicle>
    <vehicle id="237.0" depart="0.00">
        <route edges="C0D0 D0D1 D1D2 D2E2 E2D2"/>
    </vehicle>
    <vehicle id="238.0" depart="0.00">
        <route edges="C4B4 B4C4 C4D4 D4D3 D3D2 D2D1 D1E1"/>
    </vehicle>
    <vehicle id="239.0" depart="0.00">
        <route edges="E0E1 E1D1 D1D2 D2D3 D3D2"/>
    </vehicle>
    <vehicle id="24.0" depart="0.00">
        <route edges="D0D1 D1C1 C1B1 B1B2 B2B3 B3B4 B4B3"/>
    </vehicle>
    <vehicle id="240.0" depart="0.00">
        <route edges="B4C4 C4C3 C3C2 C2C1 C1C0 C0B0 B0A0 A0A1"/>
    </vehicle>
    <vehicle id="241.0" depart="0.00">
        <route edges="B4A4 A4A3 A3B3 B3C3 C3D3 D3C3"/>
    </vehicle>
    <vehicle id="242.0" depart="0.00">
        <route edges="E0E1 E1E2 E2E3 E3E2"/>
    </vehicle>
    <vehicle id="243.0" depart="0.00">
        <route edges="C0D0 D0D1 D1D2 D2E2"/>
    </vehicle>
    <vehicle id="244.0" depart="0.00">
        <route edges="C3C2 C2C3 C3C4 C4D4"/>
    </vehicle>
    <vehicle id="245.0" depart="0.00">
        <route edges="B1B0"/>
    </vehicle>
    <vehicle id="246.0" depart="0.00">
        <route edges="C1B1 B1A1 A1A0"/>
    </vehicle>
    <vehicle id="247.0" depart="0.00">
        <route edges="B3B4 B4C4 C4D4 D4D3 D3D2 D2D1 D1D2"/>
    </vehicle>
    <vehicle id="248.0" depart="0.00">
        <route edges="C0C1 C1C0 C0B0 B0A0"/>
    </vehicle>
    <vehicle id="249.0" depart="0.00">
        <route edges="C1D1 D1C1 C1B1 B1A1 A1A2 A2A3 A3B3"/>
    </vehicle>
    <vehicle id="25.0" depart="0.00">
        <route edges="B4B3 B3B2 B2B1 B1A1"/>
    </vehicle>
    <vehicle id="250.0" depart="0.00">
        <route edges="D0C0 C0B0 B0A0 A0A1 A1A0"/>
    </vehicle>
    <vehicle id="251.0" depart="0.00">
        <route edges="C0B0 B0B1 B1B2 B2B3 B3C3 C3D3"/>
    </vehicle>
    <vehicle id="252.0" depart="0.00">
        <route edges="A1A0 A0B0 B0C0 C0D0 D0E0"/>
    </vehicle>
    <vehicle id="253.0" depart="0.00">
        <route edges="A3B3 B3C3 C3C2 C2C1 C1C2"/>
    </vehicle>
    <vehicle id="254.0" depart="0.00">
        <route edges="A1B1 B1B2 B2B3 B3B4 B4C4"/>
    </vehicle>
    <vehicle id="255.0" depart="0.00">
        <route edges="B1A1 A1A2 A2A3 A3B3 B3B4"/>
    </vehicle>
    <vehicle id="256.0" depart="0.00">
        <route edges="D3C3 C3B3 B3B4 B4C4"/>
    </vehicle>
    <vehicle id="257.0" depart="0.00">
        <route edges="D3C3 C3C4 C4D4 D4E4"/>
    </vehicle>
    <vehicle id="258.0" depart="0.00">
        <route edges="B2A2 A2A3"/>
    </vehicle>
    <vehicle id="259.0" depart="0.00">
        <route edges="A0B0 B0B1 B1B2 B2B3 B3C3 C3C2"/>
    </vehicle>
    <vehicle id="26.0" depart="0.00">
        <route edges="B2B1 B1B2 B2C2 C2D2 D2E2 E2E3"/>
    </vehicle>
    <vehicle id="260.0" depart="0.00">
        <route edges="E4E3 E3D3 D3C3 C3B3 B3C3"/>
    </vehicle>
    <vehicle id="261.0" depart="0.00">
        <route edges="D1C1 C1C2 C2C3 C3D3 D3D4"/>
    </vehicle>
    <vehicle id="262.0" depart="0.00">
        <route edges="D1C1 C1C2 C2C3 C3D3 D3C3"/>
    </vehicle>
    <vehicle id="263.0" depart="0.00">
        <route edges="E3D3 D3C3 C3B3 B3B2 B2B1 B1B0 B0C0"/>
    </vehicle>
    <vehicle id="264.0" depart="0.00">
        <route edges="A0B0 B0A0 A0A1 A1A2 A2A3 A3A4 A4B4"/>
    </vehicle>
    <vehicle id="265.0" depart="0.00">
        <route edges="A3B3 B3C3 C3D3 D3D2 D2D1 D1D0"/>
    </vehicle>
    <vehicle id="266.0" depart="0.00">
        <route edges="C3D3 D3D2 D2D1 D1C1 C1B1 B1B0"/>
    </vehicle>
    <vehicle id="267.0" depart="0.00">
        <route edges="D1E1 E1D1 D1D2 D2D3 D3D2"/>
    </vehicle>
    <vehicle id="268.0" depart="0.00">
        <route edges="B0A0 A0A1 A1A2 A2A3 A3A4 A4B4 B4C4 C4D4"/>
    </vehicle>
    <vehicle id="269.0" depart="0.00">
        <route edges="D2E2 E2D2 D2C2 C2B2 B2A2 A2A3 A3A4"/>
    </vehicle>
    <vehicle id="27.0" depart="0.00">
        <route edges="D0E0 E0E1 E1D1 D1C1 C1C2 C2C3 C3C4 C4D4"/>
    </vehicle>
    <vehicle id="270.0" depart="0.00">
        <route edges="D4D3 D3E3 E3E4"/>
    </vehicle>
    <vehicle id="271.0" depart="0.00">
        <route edges="A3A2 A2A1 A1A0"/>
    </vehicle>
    <vehicle id="272.0" depart="0.00">
        <route edges="B3A3 A3B3 B3C3 C3D3 D3D2 D2D1 D1D2"/>
    </vehicle>
    <vehicle id="273.0" depart="0.00">
        <route edges="E3E2 E2E1 E1E0 E0D0 D0C0 C0B0"/>
    </vehicle>
    <vehicle id="274.0" depart="0.00">
        <route edges="D2D1 D1C1 C1B1 B1A1 A1A2 A2A3"/>
    </vehicle>
    <vehicle id="275.0" depart="0.00">
        <route edges="D1E1 E1E0 E0D0 D0D1"/>
    </vehicle>
    <vehicle id="276.0" depart="0.00">
        <route edges="A3A2 A2A3 A3B3 B3C3 C3D3 D3D2"/>
    </vehicle>
    <vehicle id="277.0" depart="0.00">
        <route edges="E0E1 E1D1 D1C1 C1C2 C2C3 C3C4 C4D4"/>
    </vehicle>
    <vehicle id="278.0" depart="0.00">
        <route edges="A3A4 A4B4 B4C4 C4D4 D4E4 E4E3 E3E4 E4D4"/>
    </vehicle>
    <vehicle id="279.0" depart="0.00">
        <route edges="D3D4 D4D3 D3C3 C3B3 B3C3"/>
    </vehicle>
    <vehicle id="28.0" depart="0.00">
        <route edges="B0A0 A0A1 A1A2 A2B2 B2C2 C2D2 D2D3"/>
    </vehicle>
    <vehicle id="280.0" depart="0.00">
        <route edges="C1B1 B1B2 B2B3 B3B4 B4B3"/>
    </vehicle>
    <vehicle id="281.0" depart="0.00">
        <route edges="C2C3 C3B3 B3C3"/>
    </vehicle>
    <vehicle id="282.0" depart="0.00">
        <route edges="E0D0 D0D1 D1D2 D2D3 D3D4 D4D3"/>
    </vehicle>
    <vehicle id="283.0" depart="0.00">
        <route edges="A3A2 A2A3 A3B3 B3C3 C3D3 D3E3 E3E2"/>
    </vehicle>
    <vehicle id="284.0" depart="0.00">
        <route edges="D0D1 D1D2 D2D3 D3D4 D4E4"/>
    </vehicle>
    <vehicle id="285.0" depart="0.00">
        <route edges="D2C2 C2C1 C1B1"/>
    </vehicle>
    <vehicle id="286.0" depart="0.00">
        <route edges="D2D3 D3E3 E3E4"/>
    </vehicle>
    <vehicle id="287.0" depart="0.00">
        <route edges="B2B1 B1B2 B2B3 B3B4 B4C4 C4D4 D4C4"/>
    </vehicle>
    <vehicle id="288.0" depart="0.00">
        <route edges="C3C2 C2B2"/>
    </vehicle>
    <vehicle id="289.0" depart="0.00">
        <route edges="C1B1 B1B2 B2C2 C2D2 D2D3"/>
    </vehicle>
    <vehicle id="29.0" depart="0.00">
        <route edges="B0A0 A0A1 A1A2 A2A3 A3A4 A4B4 B4C4"/>
    </vehicle>
    <vehicle id="290.0" depart="0.00">
        <route edges="B2B1 B1B0 B0C0 C0D0 D0E0 E0E1"/>
    </vehicle>
    <vehicle id="291.0" depart="0.00">
        <route edges="D4E4 E4E3 E3E2 E2D2 D2C2 C2B2 B2A2 A2A3"/>
    </vehicle>
    <vehicle id="292.0" depart="0.00">
        <route edges="E1E0 E0D0 D0C0 C0B0 B0B1 B1C1"/>
    </vehicle>
    <vehicle id="293.0" depart="0.00">
        <route edges="C1D1 D1C1 C1C2 C2C3 C3C4 C4D4"/>
    </vehicle>
    <vehicle id="294.0" depart="0.00">
        <route edges="B4C4 C4C3 C3C2 C2C1 C1B1 B1A1 A1A0"/>
    </vehicle>
    <vehicle id="295.0" depart="0.00">
        <route edges="E0E1 E1E0 E0D0 D0C0 C0B0 B0B1"/>
    </vehicle>
    <vehicle id="296.0" depart="0.00">
        <route edges="B1A1 A1A2 A2A3 A3B3 B3C3 C3D3 D3E3"/>
    </vehicle>
    <vehicle id="297.0" depart="0.00">
        <route edges="B3C3 C3D3 D3E3 E3E2 E2E1 E1E0"/>
    </vehicle>
    <vehicle id="298.0" depart="0.00">
        <route edges="D2C2 C2B2 B2B3"/>
    </vehicle>
    <vehicle id="299.0" depart="0.00">
        <route edges="A0A1 A1A2 A2A3 A3B3 B3C3 C3D3 D3E3 E3D3"/>
    </vehicle>
    <vehicle id="3.0" depart="0.00">
        <route edges="E1E2 E2D2 D2C2 C2B2 B2A2 A2A3"/>
    </vehicle>
    <vehicle id="30.0" depart="0.00">
        <route edges="E4E3 E3E2 E2E1 E1E0 E0D0 D0E0"/>
    </vehicle>
    <vehicle id="300.0" depart="0.00">
        <route edges="A2A3 A3B3 B3C3 C3D3 D3D2 D2D1"/>
    </vehicle>
    <vehicle id="301.0" depart="0.00">
        <route edges="C2C1 C1C2 C2C3 C3D3 D3C3"/>
    </vehicle>
    <vehicle id="302.0" depart="0.00">
        <route edges="D1E1 E1E0 E0D0 D0E0"/>
    </vehicle>
    <vehicle id="303.0" depart="0.00">
        <route edges="C2C1 C1C2 C2C3 C3D3 D3E3"/>
    </vehicle>
    <vehicle id="304.0" depart="0.00">
        <route edges="A2B2 B2B1 B1B0"/>
    </vehicle>
    <vehicle id="305.0" depart="0.00">
        <route edges="D1E1 E1D1 D1C1 C1B1 B1B2 B2B3 B3A3"/>
    </vehicle>
    <vehicle id="306.0" depart="0.00">
        <route edges="C4B4 B4C4 C4C3 C3C2 C2C1 C1D1"/>
    </vehicle>
    <vehicle id="307.0" depart="0.00">
        <route edges="C3B3 B3C3 C3C2 C2C1 C1B1"/>
    </vehicle>
    <vehicle id="308.0" depart="0.00">
        <route edges="D2E2 E2D2 D2C2 C2B2 B2B3 B3B4"/>
    </vehicle>
    <vehicle id="309.0" depart="0.00">
        <route edges="D2C2 C2B2 B2B1"/>
    </vehicle>
    <vehicle id="31.0" depart="0.00">
        <route edges="C3C4 C4D4 D4D3 D3D2 D2D1 D1D2"/>
    </vehicle>
    <vehicle id="310.0" depart="0.00">
        <route edges="B2A2 A2A3 A3A4"/>
    </vehicle>
    <vehicle id="311.0" depart="0.00">
        <route edges="B0C0 C0B0 B0A0 A0A1 A1A2 A2A3 A3A4"/>
    </vehicle>
    <vehicle id="312.0" depart="0.00">
        <route edges="C3B3 B3C3 C3D3 D3C3"/>
    </vehicle>
    <vehicle id="313.0" depart="0.00">
        <route edges="B0B1 B1B0"/>
    </vehicle>
    <vehicle id="314.0" depart="0.00">
        <route edges="C2B2 B2C2 C2D2 D2D1"/>
    </vehicle>
    <vehicle id="315.0" depart="0.00">
        <route edges="E4D4 D4D3 D3D2 D2C2 C2D2"/>
    </vehicle>
    <vehicle id="316.0" depart="0.00">
        <route edges="B2B3 B3A3 A3A2"/>
    </vehicle>
    <vehicle id="317.0" depart="0.00">
        <route edges="B0C0 C0B0 B0B1 B1B2"/>
    </vehicle>
    <vehicle id="318.0" depart="0.00">
        <route edges="B0B1 B1A1 A1A0 A0B0"/>
    </vehicle>
    <vehicle id="319.0" depart="0.00">
        <route edges="C3B3 B3B2 B2B1"/>
    </vehicle>
    <vehicle id="32.0" depart="0.00">
        <route edges="E0D0 D0D1 D1D2 D2D3 D3D4"/>
    </vehicle>
    <vehicle id="320.0" depart="0.00">
        <route edges="E3E4 E4D4 D4D3 D3C3 C3C4"/>
    </vehicle>
    <vehicle id="321.0" depart="0.00">
        <route edges="D1E1 E1D1 D1C1 C1B1 B1A1 A1A2 A2A3 A3B3"/>
    </vehicle>
    <vehicle id="322.0" depart="0.00">
        <route edges="E1D1 D1C1 C1C2 C2C1"/>
    </vehicle>
    <vehicle id="323.0" depart="0.00">
        <route edges="E1D1 D1C1 C1C2 C2C3 C3D3"/>
    </vehicle>
    <vehicle id="324.0" depart="0.00">
        <route edges="C1D1 D1C1 C1C0"/>
    </vehicle>
    <vehicle id="325.0" depart="0.00">
        <route edges="B0B1 B1A1 A1B1"/>
    </vehicle>
    <vehicle id="326.0" depart="0.00">
        <route edges="E3D3 D3D2 D2C2 C2B2"/>
    </vehicle>
    <vehicle id="327.0" depart="0.00">
        <route edges="D4D3 D3D2 D2D1 D1D0 D0C0 C0C1"/>
    </vehicle>
    <vehicle id="328.0" depart="0.00">
        <route edges="A2A1 A1B1 B1C1 C1D1 D1D0 D0D1"/>
    </vehicle>
    <vehicle id="329.0" depart="0.00">
        <route edges="A1B1 B1B2 B2B3 B3B4 B4A4 A4A3"/>
    </vehicle>
    <vehicle id="33.0" depart="0.00">
        <route edges="B1B2 B2B1 B1A1 A1A0"/>
    </vehicle>
    <vehicle id="330.0" depart="0.00">
        <route edges="C3D3 D3C3 C3B3 B3A3"/>
    </vehicle>
    <vehicle id="331.0" depart="0.00">
        <route edges="E4E3 E3D3 D3C3 C3B3 B3A3 A3A4"/>
    </vehicle>
    <vehicle id="332.0" depart="0.00">
        <route edges="D3D2 D2C2 C2C3 C3C4 C4D4"/>
    </vehicle>
    <vehicle id="333.0" depart="0.00">
        <route edges="D3E3 E3E2 E2E1 E1D1 D1C1 C1B1 B1B2"/>
    </vehicle>
    <vehicle id="334.0" depart="0.00">
        <route edges="C2D2 D2D1 D1C1 C1C2"/>
    </vehicle>
    <vehicle id="335.0" depart="0.00">
        <route edges="C1C0 C0D0 D0E0 E0E1"/>
    </vehicle>
    <vehicle id="336.0" depart="0.00">
        <route edges="E4E3 E3D3 D3C3 C3B3 B3A3"/>
    </vehicle>
    <vehicle id="337.0" depart="0.00">
        <route edges="D0C0 C0C1 C1C2 C2C3 C3C4 C4D4"/>
    </vehicle>
    <vehicle id="338.0" depart="0.00">
        <route edges="D2E2 E2E3 E3D3"/>
    </vehicle>
    <vehicle id="339.0" depart="0.00">
        <route edges="B1A1"/>
    </vehicle>
    <vehicle id="34.0" depart="0.00">
        <route edges="B3B2 B2B1"/>
    </vehicle>
    <vehicle id="340.0" depart="0.00">
        <route edges="D1C1 C1B1 B1A1 A1A2 A2A3 A3A4 A4B4"/>
    </vehicle>
    <vehicle id="341.0" depart="0.00">
        <route edges="B0A0 A0A1 A1A2 A2A3"/>
    </vehicle>
    <vehicle id="342.0" depart="0.00">
        <route edges="A0A1 A1B1 B1C1 C1C2"/>
    </vehicle>
    <vehicle id="343.0" depart="0.00">
        <route edges="C4C3 C3C2 C2B2 B2C2"/>
    </vehicle>
    <vehicle id="344.0" depart="0.00">
        <route edges="B1B2 B2C2 C2D2 D2C2"/>
    </vehicle>
    <vehicle id="345.0" depart="0.00">
        <route edges="D2C2 C2C1 C1C2"/>
    </vehicle>
    <vehicle id="346.0" depart="0.00">
        <route edges="D1D2 D2E2 E2E1"/>
    </vehicle>
    <vehicle id="347.0" depart="0.00">